Version 4
SHEET 1 1320 680
WIRE 384 64 -32 64
WIRE 656 64 464 64
WIRE 736 64 656 64
WIRE 1024 64 800 64
WIRE 1264 64 1024 64
WIRE -32 112 -32 64
WIRE 1024 160 1024 64
WIRE 1264 160 1264 64
WIRE 656 208 656 64
WIRE 608 224 528 224
WIRE 528 240 528 224
WIRE -32 272 -32 192
WIRE 656 304 656 288
WIRE 1024 304 1024 224
WIRE 1264 304 1264 240
WIRE 608 320 608 272
WIRE 608 320 528 320
WIRE 608 336 608 320
WIRE 656 464 656 384
FLAG 656 464 0
FLAG 608 336 0
FLAG -32 272 0
FLAG 1024 304 0
FLAG 1264 304 0
SYMBOL voltage -32 96 R0
SYMATTR InstName V1
SYMATTR Value 12
SYMBOL ind 368 80 R270
WINDOW 3 3 56 VBottom 2
WINDOW 0 31 56 VTop 2
SYMATTR Value 330”
SYMATTR InstName L1
SYMBOL res 640 288 R0
SYMATTR InstName R1
SYMATTR Value 22
SYMBOL voltage 528 224 R0
WINDOW 3 -357 108 Left 2
WINDOW 123 0 0 Left 0
WINDOW 39 0 0 Left 0
SYMATTR Value PULSE(0 5 5 1p 1p 12u 20u 50k)
SYMATTR InstName V2
SYMBOL TCLib\\switch 656 192 R0
SYMATTR InstName U1
SYMBOL diode 736 80 R270
WINDOW 0 32 32 VTop 2
WINDOW 3 0 32 VBottom 2
SYMATTR InstName D1
SYMATTR Value MUR460
SYMBOL cap 1008 160 R0
SYMATTR InstName C1
SYMATTR Value 10”
SYMBOL res 1248 144 R0
SYMATTR InstName R2
SYMATTR Value 1k
