Version 4
SHEET 1 1492 680
WIRE -192 64 -304 64
WIRE -64 64 -128 64
WIRE 32 64 -64 64
WIRE 80 64 32 64
WIRE 176 64 144 64
WIRE 256 64 176 64
WIRE 288 64 256 64
WIRE 384 64 352 64
WIRE 464 64 384 64
WIRE -64 96 -64 64
WIRE 32 96 32 64
WIRE 176 96 176 64
WIRE 256 96 256 64
WIRE 384 96 384 64
WIRE 464 96 464 64
WIRE -304 128 -304 64
WIRE -64 176 -64 160
WIRE -48 176 -64 176
WIRE 32 176 32 160
WIRE 32 176 16 176
WIRE 176 176 176 160
WIRE 176 176 32 176
WIRE 192 176 176 176
WIRE 256 176 256 160
WIRE 384 176 384 160
WIRE 384 176 256 176
WIRE 400 176 384 176
WIRE 464 176 464 160
WIRE 688 176 464 176
WIRE 896 176 688 176
WIRE 1072 176 976 176
WIRE 688 192 688 176
WIRE 640 208 560 208
WIRE 560 224 560 208
WIRE -304 272 -304 208
WIRE -64 272 -64 176
WIRE 1072 272 1072 176
WIRE 688 288 688 272
WIRE 640 304 640 256
WIRE 640 304 560 304
WIRE 640 320 640 304
WIRE 688 448 688 368
WIRE 1072 448 1072 336
FLAG -304 272 0
FLAG 688 448 0
FLAG 640 320 0
FLAG -64 272 0
FLAG 1072 448 0
SYMBOL cap -128 48 R90
WINDOW 0 0 32 VBottom 2
WINDOW 3 32 32 VTop 2
SYMATTR InstName C1
SYMATTR Value 4.7µ
SYMBOL cap 144 48 R90
WINDOW 0 0 32 VBottom 2
WINDOW 3 32 32 VTop 2
SYMATTR InstName C2
SYMATTR Value 4.7µ
SYMBOL cap 16 160 R90
WINDOW 0 0 32 VBottom 2
WINDOW 3 32 32 VTop 2
SYMATTR InstName C5
SYMATTR Value 4.7µ
SYMBOL cap 256 160 R90
WINDOW 0 0 32 VBottom 2
WINDOW 3 32 32 VTop 2
SYMATTR InstName C6
SYMATTR Value 4.7µ
SYMBOL diode 16 96 R0
WINDOW 3 -52 -66 Left 2
SYMATTR Value 1N4148
SYMATTR InstName D1
SYMBOL diode -48 160 R180
WINDOW 0 24 64 Left 2
WINDOW 3 24 0 Left 2
SYMATTR InstName D2
SYMATTR Value 1N4148
SYMBOL diode 192 160 R180
WINDOW 0 36 22 Left 2
WINDOW 3 15 -39 Left 2
SYMATTR InstName D3
SYMATTR Value 1N4148
SYMBOL diode 240 96 R0
WINDOW 0 36 31 Left 2
WINDOW 3 -43 -57 Left 2
SYMATTR InstName D4
SYMATTR Value 1N4148
SYMBOL diode 400 160 R180
WINDOW 0 30 31 Left 2
WINDOW 3 14 -35 Left 2
SYMATTR InstName D5
SYMATTR Value 1N4148
SYMBOL diode 448 96 R0
SYMATTR InstName D6
SYMATTR Value 1N4148
SYMBOL cap 288 80 R270
WINDOW 0 32 32 VTop 2
WINDOW 3 0 32 VBottom 2
SYMATTR InstName C4
SYMATTR Value 4.7µ
SYMBOL cap 400 192 R270
WINDOW 0 32 32 VTop 2
WINDOW 3 0 32 VBottom 2
SYMATTR InstName C8
SYMATTR Value 4.7µ
SYMBOL res 672 272 R0
SYMATTR InstName R1
SYMATTR Value 22
SYMBOL TCLib\\switch 688 176 R0
SYMATTR InstName U1
SYMBOL voltage 560 208 R0
WINDOW 3 -327 79 Left 2
WINDOW 123 0 0 Left 0
WINDOW 39 0 0 Left 0
SYMATTR Value PULSE(0 5 5 1p 1p 0.5 1 1)
SYMATTR InstName V1
SYMBOL voltage -304 112 R0
WINDOW 3 -403 53 Left 2
WINDOW 123 0 0 Left 0
WINDOW 39 0 0 Left 0
SYMATTR InstName V2
SYMATTR Value PULSE(0 30 0 1p 1p 25u 50u 100k)
SYMBOL res 992 160 R90
WINDOW 0 3 56 VBottom 2
WINDOW 3 27 56 VTop 2
SYMATTR InstName R2
SYMATTR Value 600
SYMBOL cap 1056 272 R0
SYMATTR InstName C3
SYMATTR Value 470µ
TEXT -472 392 Left 2 !.tran 0 5 0 100m
