Version 4
SHEET 1 880 680
SYMBOL pmos 192 192 R270
SYMATTR InstName M1
SYMBOL voltage -112 240 R0
SYMATTR InstName V1
