Version 4
SHEET 1 4308 1540
WIRE 2304 -144 2272 -144
WIRE 2400 -144 2384 -144
WIRE 2272 -64 2272 -144
WIRE 2320 -64 2272 -64
WIRE 2400 -64 2400 -144
WIRE 2400 -64 2368 -64
WIRE 2304 -16 2224 -16
WIRE 2544 -16 2384 -16
WIRE 2736 -16 2624 -16
WIRE 3360 -16 2736 -16
WIRE 4080 -16 3360 -16
WIRE 4240 -16 4080 -16
WIRE 4240 32 4240 -16
WIRE 4080 48 4080 -16
WIRE 2224 112 2224 -16
WIRE 2736 128 2736 -16
WIRE 4240 160 4240 112
WIRE 3360 240 3360 -16
WIRE 4080 288 4080 128
WIRE 4240 288 4240 224
WIRE 4240 288 4080 288
WIRE 4080 432 4080 288
WIRE 4032 448 3808 448
WIRE 3808 464 3808 448
WIRE 4032 496 3984 496
WIRE 2224 608 2224 192
WIRE 2736 608 2736 192
WIRE 2736 608 2224 608
WIRE 3360 608 3360 320
WIRE 3360 608 2736 608
WIRE 3808 608 3808 544
WIRE 3808 608 3360 608
WIRE 3984 608 3984 496
WIRE 3984 608 3808 608
WIRE 4080 608 4080 512
WIRE 4080 608 3984 608
WIRE -576 768 -608 768
WIRE -480 768 -496 768
WIRE -608 848 -608 768
WIRE -560 848 -608 848
WIRE -480 848 -480 768
WIRE -480 848 -512 848
WIRE -576 896 -832 896
WIRE -256 896 -496 896
WIRE -64 896 -176 896
WIRE 928 896 -64 896
WIRE 1120 896 928 896
WIRE 1248 896 1120 896
WIRE 1648 896 1248 896
WIRE 1808 896 1648 896
WIRE 1808 944 1808 896
WIRE 1648 960 1648 896
WIRE 1120 1008 1120 896
WIRE 1248 1008 1248 896
WIRE -832 1024 -832 896
WIRE -64 1040 -64 896
WIRE 928 1056 928 896
WIRE 1808 1072 1808 1024
WIRE 1120 1152 1120 1088
WIRE 1248 1152 1248 1088
WIRE 1248 1152 1120 1152
WIRE 1120 1184 1120 1152
WIRE 1648 1200 1648 1040
WIRE 1808 1200 1808 1136
WIRE 1808 1200 1648 1200
WIRE 272 1216 240 1216
WIRE 368 1216 352 1216
WIRE 928 1264 928 1136
WIRE 928 1264 752 1264
WIRE 1072 1264 928 1264
WIRE 240 1296 240 1216
WIRE 288 1296 240 1296
WIRE 368 1296 368 1216
WIRE 368 1296 336 1296
WIRE 272 1344 224 1344
WIRE 368 1344 352 1344
WIRE 432 1344 368 1344
WIRE 480 1344 432 1344
WIRE 592 1344 544 1344
WIRE 688 1344 592 1344
WIRE 704 1344 688 1344
WIRE 1648 1344 1648 1200
WIRE 928 1360 928 1264
WIRE 1600 1360 1376 1360
WIRE 592 1376 592 1344
WIRE 1376 1376 1376 1360
WIRE 144 1392 144 1344
WIRE 368 1408 368 1344
WIRE 432 1408 432 1344
WIRE 688 1408 688 1344
WIRE 1600 1408 1552 1408
WIRE -832 1520 -832 1104
WIRE -64 1520 -64 1104
WIRE -64 1520 -832 1520
WIRE 144 1520 144 1472
WIRE 144 1520 -64 1520
WIRE 368 1520 368 1472
WIRE 368 1520 144 1520
WIRE 432 1520 432 1488
WIRE 432 1520 368 1520
WIRE 592 1520 592 1456
WIRE 592 1520 432 1520
WIRE 688 1520 688 1472
WIRE 688 1520 592 1520
WIRE 752 1520 752 1360
WIRE 752 1520 688 1520
WIRE 928 1520 928 1424
WIRE 928 1520 752 1520
WIRE 1120 1520 1120 1280
WIRE 1120 1520 928 1520
WIRE 1376 1520 1376 1456
WIRE 1376 1520 1120 1520
WIRE 1552 1520 1552 1408
WIRE 1552 1520 1376 1520
WIRE 1648 1520 1648 1424
WIRE 1648 1520 1552 1520
FLAG 2224 608 0
FLAG 2736 -16 Vc3
FLAG 2272 -144 0
FLAG -832 1520 0
FLAG -64 896 Vc2
FLAG -608 768 0
FLAG 240 1216 0
SYMBOL voltage 2224 96 R0
WINDOW 3 -270 112 Left 2
WINDOW 123 0 0 Left 0
WINDOW 39 0 0 Left 0
SYMATTR Value 80
SYMATTR InstName V4
SYMBOL res 2640 -32 R90
WINDOW 0 3 56 VBottom 2
WINDOW 3 27 56 VTop 2
SYMATTR InstName R6
SYMATTR Value 1k
SYMBOL cap 2720 128 R0
WINDOW 3 45 44 Left 2
SYMATTR Value 880ｵ
SYMATTR InstName C2
SYMBOL res 3344 224 R0
SYMATTR InstName R8
SYMATTR Value 100k
SYMBOL TCLib\\switch 4080 416 R0
SYMATTR InstName U2
SYMBOL ind 4064 32 R0
WINDOW 3 -27 73 Center 2
SYMATTR Value 22m
SYMATTR InstName L2
SYMBOL diode 4256 224 R180
WINDOW 0 24 64 Left 2
WINDOW 3 24 0 Left 2
SYMATTR InstName D3
SYMATTR Value 1N4148
SYMBOL res 4224 16 R0
SYMATTR InstName R10
SYMATTR Value 330
SYMBOL voltage 3808 448 R0
SYMATTR InstName V6
SYMATTR Value 0
SYMBOL TCLib\\switch 2400 -16 R90
SYMATTR InstName U4
SYMBOL voltage 2400 -144 R90
WINDOW 3 -87 -101 VRight 2
WINDOW 123 0 0 Left 0
WINDOW 39 0 0 Left 0
SYMATTR Value PULSE(0 12 0 1p 1p 5 6)
SYMATTR InstName V7
SYMBOL voltage -832 1008 R0
WINDOW 3 45 59 Left 2
WINDOW 123 0 0 Left 0
WINDOW 39 0 0 Left 0
SYMATTR Value 80
SYMATTR InstName V9
SYMBOL res -160 880 R90
WINDOW 0 3 56 VBottom 2
WINDOW 3 27 56 VTop 2
SYMATTR InstName R13
SYMATTR Value 1k
SYMBOL cap -80 1040 R0
WINDOW 3 45 44 Left 2
SYMATTR Value 880ｵ
SYMATTR InstName C4
SYMBOL nmos 1072 1184 R0
SYMATTR InstName M3
SYMATTR Value IRF530
SYMBOL res 1104 992 R0
SYMATTR InstName R14
SYMATTR Value 2.2k
SYMBOL nmos 704 1264 R0
SYMATTR InstName M4
SYMATTR Value 2N7002
SYMBOL res 912 1040 R0
SYMATTR InstName R15
SYMATTR Value 1Meg
SYMBOL voltage 144 1376 R0
WINDOW 3 -64 16 Left 2
WINDOW 123 0 0 Left 0
WINDOW 39 0 0 Left 0
SYMATTR Value 12
SYMATTR InstName V10
SYMBOL TCLib\\switch 1648 1328 R0
SYMATTR InstName U6
SYMBOL ind 1632 944 R0
WINDOW 3 -27 73 Center 2
SYMATTR Value 22m
SYMATTR InstName L3
SYMBOL diode 1824 1136 R180
WINDOW 0 24 64 Left 2
WINDOW 3 24 0 Left 2
SYMATTR InstName D4
SYMATTR Value 1N4148
SYMBOL res 1792 928 R0
SYMATTR InstName R17
SYMATTR Value 330
SYMBOL voltage 1376 1360 R0
SYMATTR InstName V11
SYMATTR Value 0
SYMBOL zener 944 1424 R180
WINDOW 0 24 64 Left 2
WINDOW 3 24 0 Left 2
SYMATTR InstName D5
SYMATTR Value BZX84C12L
SYMATTR Description Diode
SYMATTR Type diode
SYMBOL TCLib\\switch -480 896 R90
SYMATTR InstName U7
SYMBOL voltage -480 768 R90
WINDOW 3 -87 -101 VRight 2
WINDOW 123 0 0 Left 0
WINDOW 39 0 0 Left 0
SYMATTR Value PULSE(0 12 0 1p 1p 5 20)
SYMATTR InstName V12
SYMBOL res 1232 992 R0
SYMATTR InstName R18
SYMATTR Value 2.2k
SYMBOL TCLib\\switch 368 1344 R90
SYMATTR InstName U8
SYMBOL voltage 368 1216 R90
WINDOW 3 -87 -101 VRight 2
WINDOW 123 0 0 Left 0
WINDOW 39 0 0 Left 0
SYMATTR Value PULSE(0 12 0 1p 1p 5 20)
SYMATTR InstName V13
SYMBOL res 128 1360 R270
WINDOW 0 27 56 VTop 2
WINDOW 3 3 56 VBottom 2
SYMATTR InstName R19
SYMATTR Value 10
SYMBOL cap 352 1408 R0
SYMATTR InstName C5
SYMATTR Value 10ｵ
SYMBOL res 416 1392 R0
SYMATTR InstName R20
SYMATTR Value 1Meg
SYMBOL res 576 1360 R0
SYMATTR InstName R21
SYMATTR Value 47k
SYMBOL zener 544 1328 R90
WINDOW 0 0 32 VBottom 2
WINDOW 3 32 32 VTop 2
SYMATTR InstName D6
SYMATTR Value BZX84C8V2L
SYMATTR Description Diode
SYMATTR Type diode
TEXT -1064 1272 Left 2 !.tran 0 20 0 0.2
