Version 4
SHEET 1 2036 1252
WIRE 1040 16 832 16
WIRE 1280 16 1040 16
WIRE 1472 16 1280 16
WIRE 2000 16 1552 16
WIRE 2000 48 2000 16
WIRE 832 80 832 16
WIRE 1040 80 1040 16
WIRE 1280 96 1280 16
WIRE 832 192 832 144
WIRE 1040 192 1040 160
WIRE 1280 192 1280 176
WIRE 2000 192 2000 128
WIRE 1280 304 1280 256
WIRE 2000 304 2000 272
WIRE 832 320 832 272
WIRE 1040 320 1040 272
WIRE 1040 320 832 320
WIRE 832 400 832 320
WIRE 784 416 160 416
WIRE 784 464 736 464
WIRE 160 496 160 416
WIRE 736 512 736 464
WIRE 832 512 832 480
WIRE 832 512 736 512
WIRE 832 528 832 512
WIRE 160 624 160 576
FLAG 1280 304 0
FLAG 832 528 0
FLAG 160 624 0
FLAG 2000 304 0
SYMBOL cap 1296 192 M0
SYMATTR InstName C1
SYMATTR Value 470”
SYMBOL diode 848 144 R180
WINDOW 0 24 64 Left 2
WINDOW 3 24 0 Left 2
SYMATTR InstName D1
SYMATTR Value 1N4148
SYMBOL res 816 176 R0
SYMATTR InstName R2
SYMATTR Value 10
SYMBOL ind 1024 64 R0
WINDOW 3 -31 73 Center 2
SYMATTR Value 20m
SYMATTR InstName L1
SYMBOL res 1024 176 R0
SYMATTR InstName R3
SYMATTR Value 22
SYMBOL TCLib\\square 160 544 R0
SYMATTR Value Vpp=10 Freq=1 Voff=5 DC=0.1
SYMATTR InstName U1
SYMBOL TCLib\\switch 832 384 R0
SYMATTR InstName U2
SYMBOL voltage 2000 176 M0
SYMATTR InstName V2
SYMATTR Value 30
SYMBOL voltage 2000 32 M0
SYMATTR InstName V3
SYMATTR Value 100
SYMBOL res 1568 0 R90
WINDOW 0 3 56 VBottom 2
WINDOW 3 27 56 VTop 2
SYMATTR InstName R1
SYMATTR Value 600
SYMBOL res 1264 80 R0
SYMATTR InstName R4
SYMATTR Value 5
TEXT 168 360 Left 2 !.tran 0 5 0 10m
